Version 4
SHEET 1 1856 680
WIRE -128 -176 -176 -176
WIRE 240 -176 -48 -176
WIRE 320 -176 240 -176
WIRE 1360 -160 1216 -160
WIRE 320 -144 320 -176
WIRE -176 -128 -176 -176
WIRE 1216 -128 1216 -160
WIRE 208 -32 176 -32
WIRE 320 -32 320 -64
WIRE 320 -32 288 -32
WIRE 368 -32 320 -32
WIRE 384 -32 368 -32
WIRE 512 -32 448 -32
WIRE 1056 -16 960 -16
WIRE 1104 -16 1056 -16
WIRE 1216 -16 1216 -48
WIRE 1216 -16 1104 -16
WIRE -176 0 -176 -48
WIRE 320 0 320 -32
WIRE 48 48 -176 48
WIRE 64 48 48 48
WIRE 176 48 176 -32
WIRE 176 48 128 48
WIRE 256 48 176 48
WIRE 960 48 960 -16
WIRE 1360 48 1360 -160
WIRE 512 96 512 -32
WIRE 560 96 512 96
WIRE 672 96 624 96
WIRE 736 96 672 96
WIRE 864 96 816 96
WIRE 896 96 864 96
WIRE 1056 96 1056 -16
WIRE -176 128 -176 48
WIRE 320 128 320 96
WIRE 320 128 272 128
WIRE 512 144 512 96
WIRE 672 144 672 96
WIRE 272 160 272 128
WIRE 320 160 320 128
WIRE -176 272 -176 208
WIRE 272 272 272 224
WIRE 320 272 320 240
WIRE 512 272 512 208
WIRE 672 272 672 208
WIRE 960 272 960 144
WIRE 1056 272 1056 160
WIRE 1360 272 1360 128
FLAG 320 272 0
FLAG -176 0 0
FLAG 272 272 0
FLAG 512 272 0
FLAG 672 272 0
FLAG -176 272 0
FLAG 240 -176 Vcc
FLAG 48 48 IN
FLAG 960 272 0
FLAG 1360 272 0
FLAG 1104 -16 PTT
FLAG 368 -32 collector
FLAG 1056 272 0
FLAG 864 96 base
FLAG 672 96 rect
SYMBOL voltage -176 -144 R0
WINDOW 0 48 48 Left 2
WINDOW 3 48 64 Left 2
WINDOW 123 0 0 Left 2
WINDOW 39 -81 91 Left 2
SYMATTR InstName V1
SYMATTR Value 2.8V
SYMBOL cap 64 64 R270
WINDOW 0 -32 32 VTop 2
WINDOW 3 -32 32 VBottom 2
SYMATTR InstName C1
SYMATTR Value 4.7µ
SYMATTR SpiceLine V=10 Irms=9.29 Rser=0.00646575 Lser=0 mfg="KEMET" pn="C0603C475K8PAC" type="X5R"
SYMBOL Misc\\EuropeanResistor 304 -48 R90
WINDOW 0 -16 56 VBottom 2
WINDOW 3 -16 56 VTop 2
SYMATTR InstName R1
SYMATTR Value 121K
SYMATTR SpiceLine tol=1 pwr=0.1
SYMBOL npn 256 0 R0
WINDOW 0 64 32 Left 2
WINDOW 3 64 48 Left 2
SYMATTR InstName Q1
SYMATTR Value 2N2222
SYMBOL Misc\\EuropeanResistor 304 -160 R0
WINDOW 0 33 49 Left 2
WINDOW 3 33 64 Left 2
SYMATTR InstName R2
SYMATTR Value 3.32K
SYMATTR SpiceLine tol=1 pwr=0.1
SYMBOL Misc\\EuropeanResistor 304 144 R0
WINDOW 0 32 48 Left 2
WINDOW 3 32 64 Left 2
SYMATTR InstName R3
SYMATTR Value 121
SYMATTR SpiceLine tol=1 pwr=0.1
SYMBOL polcap 256 160 R0
WINDOW 0 -6 32 Right 2
WINDOW 3 -5 48 Right 2
SYMATTR InstName C2
SYMATTR Value 100µ
SYMATTR SpiceLine V=6.3 Irms=0 Rser=0.9 Lser=0 mfg="AVX" pn="TAJD107M006" type="Tantalum"
SYMATTR Description Capacitor
SYMATTR Type cap
SYMBOL cap 384 -16 R270
WINDOW 0 32 32 VTop 2
WINDOW 3 0 32 VBottom 2
SYMATTR InstName C3
SYMATTR Value 4.7µ
SYMATTR SpiceLine V=10 Irms=9.29 Rser=0.00646575 Lser=0 mfg="KEMET" pn="C0603C475K8PAC" type="X5R"
SYMBOL cap 688 208 R180
WINDOW 0 48 32 Left 2
WINDOW 3 48 16 Left 2
SYMATTR InstName C4
SYMATTR Value 0.1µ
SYMATTR SpiceLine V=10 Irms=728m Rser=0.14361 Lser=0 mfg="KEMET" pn="C0603C104K8RAC" type="X7R"
SYMBOL Misc\\EuropeanResistor 832 80 R90
WINDOW 0 5 56 VBottom 2
WINDOW 3 27 56 VTop 2
SYMATTR InstName R4
SYMATTR Value {Rbase}
SYMATTR SpiceLine tol=1 pwr=0.1
SYMBOL schottky 560 112 R270
WINDOW 0 32 32 VTop 2
WINDOW 3 0 32 VBottom 2
SYMATTR InstName D1
SYMATTR Value BAT54
SYMATTR Description Diode
SYMATTR Type diode
SYMBOL schottky 528 208 R180
WINDOW 0 48 32 Left 2
WINDOW 3 48 16 Left 2
SYMATTR InstName D2
SYMATTR Value BAT54
SYMATTR Description Diode
SYMATTR Type diode
SYMBOL voltage -176 112 R0
WINDOW 0 48 48 Left 2
WINDOW 3 48 64 Left 2
WINDOW 123 0 0 Left 2
WINDOW 39 0 0 Left 2
SYMATTR InstName V2
SYMATTR Value SINE(0 2.2 250 250ms)
SYMBOL Misc\\EuropeanResistor -32 -192 R90
WINDOW 0 48 64 VBottom 2
WINDOW 3 48 64 VTop 2
SYMATTR InstName R5
SYMATTR Value 2.33K
SYMBOL voltage 1360 32 R0
WINDOW 0 -76 43 Left 2
WINDOW 3 -81 63 Left 2
WINDOW 123 0 0 Left 2
WINDOW 39 -81 91 Left 2
SYMATTR InstName V3
SYMATTR Value 5.0V
SYMBOL Misc\\EuropeanResistor 1200 -144 R0
WINDOW 0 33 49 Left 2
WINDOW 3 33 64 Left 2
SYMATTR InstName R7
SYMATTR Value 11K
SYMATTR SpiceLine tol=1 pwr=0.1
SYMBOL cap 1072 160 R180
WINDOW 0 -9 41 Right 2
WINDOW 3 -9 25 Right 2
SYMATTR InstName C5
SYMATTR Value 0.001µ
SYMATTR SpiceLine V=10 Irms=40.9m Rser=5.11126 Lser=0 mfg="KEMET" pn="C0603C102K8RAC" type="X7R"
SYMBOL npn 896 48 R0
WINDOW 0 64 32 Left 2
WINDOW 3 64 48 Left 2
SYMATTR InstName Q2
SYMATTR Value 2N2222
TEXT 576 -48 Left 2 !.tran 400ms startup
TEXT 576 -32 Left 2 !.step param Rbase list 1K 4.7K 10K
TEXT 1248 -208 Left 2 ;FT-817
TEXT -152 -208 Left 2 ;Phone
TEXT -128 -48 Left 2 ;Microphone
TEXT -136 104 Left 2 ;Headphones\noutput
RECTANGLE Normal 1424 304 1168 -224 1
RECTANGLE Normal 16 304 -240 -224 1
